31
test.xyz   Shifted by (-2.431440,-0.060891,0)
C     -5.184439     -0.474282     -3.130065
O     -4.500776     -1.530730     -3.130065
O     -4.711628      0.690529     -3.130065
C     -6.689695     -0.623995     -3.130065
H     -7.008233     -0.756287     -2.093827
H     -7.167748      0.266169     -3.534075
H     -6.983614     -1.509649     -3.691159
C     -1.357934     -0.128748     -3.130065
N      0.000000      0.000000     -3.130065
H      0.509900     -0.821205     -2.849679
H      0.342892      0.827902     -2.669238
N     -2.113121      0.951390     -3.130065
N     -1.915464     -1.320150     -3.130065
H     -1.673690      1.846905     -3.229654
H     -3.181921      0.859882     -3.147535
H     -1.329344     -2.128014     -3.036165
H     -2.989885     -1.418030     -3.154868
C      0.680163     -0.115487      0.000000
C     -0.680163      0.115487      0.000000
C     -1.654623     -0.930547      0.000000
C      0.374195     -2.315484      0.000000
C      0.420235      1.985371      0.000000
H      0.714146     -3.345722     -0.004898
H      0.594909      3.050205     -0.005616
N     -0.829139      1.469547      0.000000
H     -1.701782      1.958405     -0.102807
N      1.360331      1.069758      0.000000
N      1.241326     -1.363518      0.000000
N     -0.979421     -2.159075      0.000000
O     -2.861737     -0.848773      0.000000
H     -1.572394     -2.972282     -0.060865
