31
Final Energy =           -921.7678302160
C       -0.5712100        0.8623730        0.0000000
O        0.1124530       -0.1940750        0.0000000
O       -0.0983990        2.0271840        0.0000000
C       -2.0764660        0.7126600        0.0000000
H       -2.3950040        0.5803680        1.0362380
H       -2.5545190        1.6028240       -0.4040100
H       -2.3703850       -0.1729940       -0.5610940
C        3.2552950        1.2079070        0.0000000
N        4.6132290        1.3366550        0.0000000
H        5.1231300        0.5154500        0.2803860
H        4.9561220        2.1645570        0.4608270
N        2.5001080        2.2880450        0.0000000
N        2.6977650        0.0165050        0.0000000
H        2.9395390        3.1835600       -0.0995890
H        1.4313080        2.1965370       -0.0174700
H        3.2838850       -0.7913590        0.0939000
H        1.6233440       -0.0813750       -0.0248030
C        2.8619530        1.1602770        3.1300650
C        1.5016260        1.3912510        3.1300650
C        0.5271660        0.3452170        3.1300650
C        2.5559840       -1.0397200        3.1300650
C        2.6020240        3.2611350        3.1300650
H        2.8959350       -2.0699580        3.1251670
H        2.7766990        4.3259690        3.1244490
N        1.3526500        2.7453110        3.1300650
H        0.4800070        3.2341690        3.0272580
N        3.5421200        2.3455220        3.1300650
N        3.4231160       -0.0877540        3.1300650
N        1.2023680       -0.8833110        3.1300650
O       -0.6799480        0.4269910        3.1300650
H        0.6093950       -1.6965180        3.0692000
