14
test.xyz   Shifted by (2.59311,-0.03600,0.00004)
C      0.000000      0.000004     -0.000001
C      1.382082     -0.011039      0.000030
C      2.172184      1.178162      0.000136
C     -0.056050      2.221220      0.000240
C      0.583451     -2.033035     -0.000237
H     -0.557433      3.182883      0.000295
H      0.574577     -3.112237     -0.000386
N      1.741844     -1.328954     -0.000250
H      2.680356     -1.686636     -0.000433
N     -0.484018     -1.275437      0.000233
N     -0.751430      1.141587      0.000115
N      1.310808      2.283371      0.000224
O      3.380240      1.295280      0.000069
H      1.763835      3.184041      0.000267
