#B3lyp/3-21G opt

step 2 (attempt 2) cycle 1

0 2
 C                 -0.70615735    2.69907373    0.49891920
 C                  0.68130084    2.84352639    0.52268080
 C                  1.30404628    3.74162878   -0.34381903
 C                  0.53936142    4.49492751   -1.23545496
 C                 -0.84771739    4.35011023   -1.25948278
 C                 -1.47058535    3.45240957   -0.39196972
 H                 -1.19698261    1.99126723    1.18247121
 H                 -2.56411423    3.33855344   -0.41095417
 C                 -0.19651829    6.09764451   -3.09014181
 H                 -0.30894420    7.20350785   -2.98460485
 H                 -0.13564862    5.86260348   -4.18003863
 O                 -1.38326048    5.36816202   -2.44365164
 O                  1.06238064    5.60866142   -2.35901212
 C                  3.47573379    2.76957435   -1.14143337
 C                  4.86773512    2.70596367   -1.21040726
 C                  5.64095014    3.72529834   -0.65514417
 C                  5.02215550    4.80949279   -0.03158012
 C                  3.63047347    4.87325519    0.03692178
 C                  2.85718717    3.85303900   -0.51769260
 H                  5.35509689    1.85126706   -1.70154269
 H                  6.73815873    3.67491846   -0.70891867
 C                  4.58414223    7.02716478    1.16848627
 H                  4.65079962    7.19208613    2.27078800
 H                  4.62277045    8.02577734    0.67038455
 O                  3.28513716    6.29147904    0.80820362
 O                  5.73584423    6.13453574    0.68343215
 P                  1.67816196    1.86124685    1.68620769
 P                  2.46706022    1.43887804   -1.86546719
 Rh                 1.30739994    0.45460010   -0.15140329
 C                  3.39853515    2.42567818    1.87095995
 C                  0.80197824    1.36912717    3.20361347
 C                  3.54462507    0.21203841   -2.66928217
 C                  1.30458239    2.13406922   -3.08109646
 H                  1.39601878    1.62273469    4.05666626
 H                 -0.13547497    1.88223877    3.25650928
 H                  0.63027191    0.31308495    3.18976607
 H                  4.02076619    1.90834943    1.17088888
 H                  3.45058956    3.47805382    1.68469176
 H                  3.73567787    2.22246728    2.86591729
 H                  4.45986096    0.12784750   -2.12141799
 H                  3.05173145   -0.73748322   -2.68837538
 H                  3.75579620    0.52447710   -3.67062568
 H                  1.74898948    2.10946722   -4.05413145
 H                  0.40455213    1.55542625   -3.08532110
 H                  1.07677080    3.14602548   -2.81851999
 H                  1.82144537   -0.98126495    0.12527133
 H                 -0.20298104    0.34595468   -0.48222872


